M_CM_CUSManuEngAddin=mkSharedLibrary "D:\Works\DS\CommomGTO\.\CM_CUSAddin\CM_CUSManuEngAddin.m" CM_CUSManuEngAddin - - - - - -
TRANSITIVEBUILT=NO
MKMK_DEVSTAGE=
MOD_LinkWith=M_JS0FM M_JS0GROUP M_JS0BASEILB M_CATSysMultiThreading M_CATSysTS M_CATSysTSObjectModeler M_CATAfrItf M_CATAfrFoundation M_CATVisItf M_CATAfrCompanion M_CATAfrComponentsModel M_DELPPRLiveProcessItf M_DELPPRAuthFoundationItf M_DELPPRLiveSystemUseItfCPP M_DELWkiExposeUseItf M_CATImmPPRNavInterfaces
MKMK_WARNING=
MKMK_ZIPJAVASOURCE=
GProtected=D:\Works\DS\CommomGTO\.\CM_CUSAddin\ProtectedGenerated\win_b64
IProtected=D:\Works\DS\CommomGTO\.\CM_CUSAddin\ProtectedInterfaces
M_CATVisItf=mkSharedLibrary "C:\Program Files\Dassault Systemes\B422\.\VisualizationInterfaces\CATVisItf.m" CATVisItf - - - - - -
MKMK_BSCMAKE=
M_CATSysTSObjectModeler=mkSharedLibrary "C:\Program Files\Dassault Systemes\B422\.\SystemTS\CATSysTSObjectModeler.m" CATSysTSObjectModeler - - - - - -
GLocal=D:\Works\DS\CommomGTO\.\CM_CUSAddin\CM_CUSManuEngAddin.m\LocalGenerated\win_b64
ILocal=D:\Works\DS\CommomGTO\.\CM_CUSAddin\CM_CUSManuEngAddin.m\LocalInterfaces
M_JS0BASEILB=mkSharedLibrary "C:\Program Files\Dassault Systemes\B422\.\SystemTS\JS0BASEILB.m" JS0BASEILB - - - - - -
IPublic=D:\Works\DS\CommomGTO\.\CM_CUSAddin\PublicInterfaces
GPublic=D:\Works\DS\CommomGTO\.\CM_CUSAddin\PublicGenerated\win_b64
MODSOURCES=D:\Works\DS\CommomGTO\.\CM_CUSAddin\CM_CUSManuEngAddin.m
MOD_INCPATH="D:\Works\DS\CommomGTO\.\CM_CUSAddin\CM_CUSManuEngAddin.m\src" "D:\Works\DS\CommomGTO\.\CM_CUSAddin\CM_CUSManuEngAddin.m\LocalInterfaces" "D:\Works\DS\CommomGTO\.\CM_CUSAddin\CM_CUSManuEngAddin.m\LocalGenerated\win_b64"
GPrivate=D:\Works\DS\CommomGTO\.\CM_CUSAddin\PrivateGenerated\win_b64
IPrivate=D:\Works\DS\CommomGTO\.\CM_CUSAddin\PrivateInterfaces
USE_PDB_FILE=YES
WSPATH=D:\Works\DS\CommomGTO\.
M_CATImmPPRNavInterfaces=mkSharedLibrary "C:\Program Files\Dassault Systemes\B422\.\CATImmPPRNavInterfaces\CATImmPPRNavInterfaces.m" CATImmPPRNavInterfaces - - - - - -
MODPATH=D:\Works\DS\CommomGTO\.\CM_CUSAddin\CM_CUSManuEngAddin.m
FWNAME=CM_CUSAddin
WSROOT=D:\Works\DS\CommomGTO\.
CONTNAME=CM_CUSManuEngAddin
WSSOURCES=D:\Works\DS\CommomGTO\.
M_CATAfrComponentsModel=mkSharedLibrary "C:\Program Files\Dassault Systemes\B422\.\AfrComponentsModel\CATAfrComponentsModel.m" CATAfrComponentsModel - - - - - -
TARGETS_VALID=cppgrammar typelibgrammar compilation sourceruler cpponly link1st link2nd runtimedata buildtimedata
WSENAME_msg=CM_CUSAddin\CM_CUSManuEngAddin.m
MODDIRNAME=CM_CUSManuEngAddin.m
M_CATAfrCompanion=mkSharedLibrary "C:\Program Files\Dassault Systemes\B422\.\AfrFoundation\CATAfrCompanion.m" CATAfrCompanion - - - - - -
M_CATAfrFoundation=mkSharedLibrary "C:\Program Files\Dassault Systemes\B422\.\AfrFoundation\CATAfrFoundation.m" CATAfrFoundation - - - - - -
M_JS0GROUP=mkSharedLibrary "C:\Program Files\Dassault Systemes\B422\.\System\JS0GROUP.m" JS0GROUP - - - - - -
NAME=D:\Works\DS\CommomGTO\.\CM_CUSAddin\CM_CUSManuEngAddin.m\Objects\win_b64\.mkdata.mkb
M_CATAfrItf=mkSharedLibrary "C:\Program Files\Dassault Systemes\B422\.\AfrInterfaces\CATAfrItf.m" CATAfrItf - - - - - -
STEPS_TO_BUILD=DoxGrammar1st buildtimedata compilation cppgrammar cpponly cscimplement cscimplementclang grammar1st link1st link2nd runtimedata sourceruler typelibgrammar
WSEKEY=M_CM_CUSManuEngAddin
TARGET_DYNLINK=link1st link2nd
_MK_CLR_BLDCONF=MANAGED_CLR$(_MK_MSNET_VERS)
WIZARD_LINK_MODULES=JS0FM JS0GROUP CATAfrItf CATAfrFoundation DELPPRLiveProcessItf DELPPRAuthFoundationItf DELPPRLiveSystemUseItfCPP DELWkiExposeUseItf CATImmPPRNavInterfaces
WSSOURCES_Concat="D:\Works\DS\CommomGTO\." "C:\Program Files\Dassault Systemes\B422\."
FW_AllPreq=AfrFoundation,21ED1151;AfrInterfaces,21ED1151;BSFBuildtimeData,21DD1140;CATImmPPRNavInterfaces,21EE1151;DELPPRAuthFoundationInterfaces,21EE1151;DELPPRLiveProcessInterfaces,21EE1151;DELPPRLiveSystemUseItf,21EE1151;DELWkiExposeUseItf,21EE1151;SpecialAPI,21ED1151;System,21ED1151;AfrComponentsModel,20CC1141;CATPLMComponentInterfaces,20EE1151;CATPLMIdentificationAccess,20CC1151;CATStyleProcessor,20DD1141;CATVirtualVaultSystem,20DD1151;DataCommonProtocolUse,20DD2031;Dialog,20DD1151;IVInterfaces,20DD1151;InfInterfaces,20DD1151;InfInterfacesTLB,20EE1151;InfOSIDLItf,20DD1151;InteractiveInterfaces,20DD1131;IntrospectionInfrastructure,20CC1141;KnowledgeInterfaces,20EE1151;Mathematics,20DD1131;MultimediaPixelImage,20DD1151;OOCInterfaces,20CC1141;ObjectModelerBase,20DD1151;ObjectModelerCollection,20DD1131;ObjectModelerEngines,20CC1151;ObjectModelerInterfaces,20DD1151;ObjectModelerSystem,20DD1151;PLMDictionaryInterfaces,20DD1151;SGCoreUtils,20CC1141;SGInfra,20CC1151;SGManager,20CC1151;SystemTS,20CC1131;UIVCoreTools,20DD1131;VisualizationController,20DD1151;VisualizationCore,20CC1151;VisualizationFoundation,20CC1151;VisualizationInterfaces,20DD1151;VisualizationSceneGraph,20CC1151;XMLParserItf,20DD1151;
FWCOMPANYNAME=
M_DELPPRLiveProcessItf=mkSharedLibrary "C:\Program Files\Dassault Systemes\B422\.\DELPPRLiveProcessInterfaces\DELPPRLiveProcessItf.m" DELPPRLiveProcessItf - - - - - -
BUILD=YES
MOD_Container=CM_CUSManuEngAddin.m
WS_Concat="D:\Works\DS\CommomGTO\." "C:\Program Files\Dassault Systemes\B422\."
FWmkHLpath=D:\Works\DS\CommomGTO\.\CM_CUSAddin\IdentityCard\Objects\win_b64\.mkHLpath.mk
MOD_ObjectsPath=D:\Works\DS\CommomGTO\.\CM_CUSAddin\CM_CUSManuEngAddin.m\Objects\win_b64
RTViewDataListPath=D:\Works\DS\CommomGTO\.\CM_CUSAddin\various\win_b64\CM_CUSManuEngAddin.m\module.data
M_JS0FM=mkSharedLibrary "C:\Program Files\Dassault Systemes\B422\.\System\JS0FM.m" JS0FM - - - - - -
FWCOPYRIGHT=
TYPELATE=mkSharedLibrary
BUILT_OBJECT_TYPE=SHARED LIBRARY
IMAKEKEY_VALID=COMDYN_MODULE INCLUDED_MODULES
TARGETS_MANDATORY=cscimplement cscimplementclang
FW_INCPATH="D:\Works\DS\CommomGTO\.\CM_CUSAddin\PrivateInterfaces" "D:\Works\DS\CommomGTO\.\CM_CUSAddin\PrivateGenerated\win_b64" "D:\Works\DS\CommomGTO\.\CM_CUSAddin\ProtectedInterfaces" "D:\Works\DS\CommomGTO\.\CM_CUSAddin\ProtectedGenerated\win_b64" "D:\Works\DS\CommomGTO\.\CM_CUSAddin\PublicInterfaces" "D:\Works\DS\CommomGTO\.\CM_CUSAddin\PublicGenerated\win_b64"
MOD_SrcPath=D:\Works\DS\CommomGTO\.\CM_CUSAddin\CM_CUSManuEngAddin.m\src
DOC_RTViewDataListPath=D:\Works\DS\CommomGTO\.\CM_CUSAddin\various\win_b64.doc\CM_CUSManuEngAddin.m\module.data
LINK_WITH=JS0FM JS0GROUP CATAfrItf CATAfrFoundation DELPPRLiveProcessItf DELPPRAuthFoundationItf DELPPRLiveSystemUseItfCPP DELWkiExposeUseItf CATImmPPRNavInterfaces
MOD_Included=M_CM_CUSManuEngAddin
M_DELPPRAuthFoundationItf=mkSharedLibrary "C:\Program Files\Dassault Systemes\B422\.\DELPPRAuthFoundationInterfaces\DELPPRAuthFoundationItf.m" DELPPRAuthFoundationItf - - - - - -
M_CATSysTS=mkSharedLibrary "C:\Program Files\Dassault Systemes\B422\.\SystemTS\CATSysTS.m" CATSysTS - - - - - -
FWPATH=D:\Works\DS\CommomGTO\.\CM_CUSAddin
MK_BUILD_CONFIGURATION=
MKMK_DEBUG=YES
M_DELPPRLiveSystemUseItfCPP=mkSharedLibrary "C:\Program Files\Dassault Systemes\B422\.\DELPPRLiveSystemUseItf\DELPPRLiveSystemUseItfCPP.m" DELPPRLiveSystemUseItfCPP - - - - - -
M_DELWkiExposeUseItf=mkSharedLibrary "C:\Program Files\Dassault Systemes\B422\.\DELWkiExposeUseItf\DELWkiExposeUseItf.m" DELWkiExposeUseItf - - - - - -
FWSOURCES=D:\Works\DS\CommomGTO\.\CM_CUSAddin
STEPS_TO_CLEAN=
F_CM_CUSAddin=mkFrameworkCode "D:\Works\DS\CommomGTO\.\CM_CUSAddin" CM_CUSAddin - -
M_CATSysMultiThreading=mkSharedLibrary "C:\Program Files\Dassault Systemes\B422\.\SystemTS\CATSysMultiThreading.m" CATSysMultiThreading - - - - - -
MKMK_DEBUGEDITANDCONTINUE=
FWDNAME=CM_CUSAddin
MODNAME=CM_CUSManuEngAddin
REAL_LINK_WITH=JS0FM JS0GROUP JS0BASEILB CATSysMultiThreading CATSysTS CATSysTSObjectModeler CATAfrItf CATAfrFoundation CATVisItf CATAfrCompanion CATAfrComponentsModel DELPPRLiveProcessItf DELPPRAuthFoundationItf DELPPRLiveSystemUseItfCPP DELWkiExposeUseItf CATImmPPRNavInterfaces
